<?xml version="1.0" encoding="UTF-8"?>

<!-- generated on 2024-04-30 12:57:58 by Eclipse SUMO netedit Version 1.19.0
-->

<routes xmlns:xsi="http://www.w3.org/2001/XMLSchema-instance" xsi:noNamespaceSchemaLocation="http://sumo.dlr.de/xsd/routes_file.xsd">
    <!-- VTypes -->
    <vType id="DEFAULT_VEHTYPE" vClass="emergency" emissionClass="HBEFA3/PC_G_EU4" guiShape="emergency" width="1.80" height="1.50" color="blue"/>
    <vType id="bus" vClass="bus" color="yellow"/>
    <vType id="emergency" vClass="emergency" guiShape="emergency" color="red"/>
    <vType id="private" color="128,0,0"/>
    <!-- Routes -->
    <route id="r_0" edges="3i 4o"/>
    <route id="r_1" edges="2i 1o"/>
    <route id="r_2" edges="4i 3o"/>
    <route id="r_3" edges="1i 2o"/>
    <route id="r_4" edges="3i 4o"/>
</routes>
