<?xml version="1.0" encoding="UTF-8"?>

<!-- generated on 2024-05-08 15:31:52 by Eclipse SUMO sumo Version 1.19.0
-->

<configuration xmlns:xsi="http://www.w3.org/2001/XMLSchema-instance" xsi:noNamespaceSchemaLocation="http://sumo.dlr.de/xsd/sumoConfiguration.xsd">

    <input>
        <net-file value="map.net.xml"/>
        <route-files value="map.net.xml.rou.xml"/>
        <additional-files value="map.net.xml.add.xml"/>
    </input>

</configuration>
